Program Version,EnergyPlus, Version 8.9.0-40101eaafd, YMD=2026.03.21 11:11,
   ** Warning ** Timestep: Requested number (1) is less than the suggested minimum of 4.
   **   ~~~   ** Please see entry for Timestep in Input/Output Reference for discussion of considerations.
   ************* Beginning Zone Sizing Calculations
   ** Warning ** Weather file location will be used rather than entered (IDF) Location object.
   **   ~~~   ** ..Location object=SEOUL_KOR_WMO_471100
   **   ~~~   ** ..Weather File Location=INCH'ON - KOR IWEC Data WMO#=471120
   **   ~~~   ** ..due to location differences, Latitude difference=[8.60E-002] degrees, Longitude difference=[0.43] degrees.
   **   ~~~   ** ..Time Zone difference=[0.0] hour(s), Elevation difference=[18.60] percent, [16.00] meters.
   ** Warning ** SetUpDesignDay: Entered DesignDay Barometric Pressure=83411 differs by more than 10% from Standard Barometric Pressure=100487.
   **   ~~~   ** ...occurs in DesignDay=DENVER_STAPLETON ANN HTG 99.6% CONDNS DB, Standard Pressure (based on elevation) will be used.
   ** Warning ** GetHTSurfaceData: Surfaces with interface to Ground found but no "Ground Temperatures" were input.
   **   ~~~   ** Found first in surface=BLOCK BALCONY_F1 STOREY 0 FLOOR 0001
   **   ~~~   ** Defaults, constant throughout the year of (18.0) will be used.
   ** Warning ** GetSurfaceData: Construction INTERIOR_WALL_CONSTRUCTION of interzone surface BLOCK BALCONY_F1 STOREY 0 WALL 0002_1 does not have the same materials in the reverse order as the construction INTERIOR_WALL_CONSTRUCTION of adjacent surface BLOCK LIVING_1_F1 STOREY 0 WALL 0004_1
   **   ~~~   ** ...but Nominal U values are similar, diff=[0.0000] ... simulation proceeds.
   **   ~~~   ** ...if the two zones are expected to have significantly different temperatures, the proper "reverse" construction should be created.
   **   ~~~   ** ...this problem for this pair will not be reported again.
   ** Warning ** Indicated Zone Volume <= 0.0 for Zone=BLOCK BALCONY_F1 STOREY 0
   **   ~~~   ** The calculated Zone Volume was=-12.75
   **   ~~~   ** The simulation will continue with the Zone Volume set to 10.0 m3. 
   **   ~~~   ** ...use Output:Diagnostics,DisplayExtraWarnings; to show more details on individual zones.
   ** Warning ** Indicated Zone Volume <= 0.0 for Zone=BLOCK LIVING_1_F1 STOREY 0
   **   ~~~   ** The calculated Zone Volume was=-19.75
   **   ~~~   ** The simulation will continue with the Zone Volume set to 10.0 m3. 
   **   ~~~   ** ...use Output:Diagnostics,DisplayExtraWarnings; to show more details on individual zones.
   ** Warning ** Indicated Zone Volume <= 0.0 for Zone=BLOCK ROOM_1_F1 STOREY 0
   **   ~~~   ** The calculated Zone Volume was=-25.00
   **   ~~~   ** The simulation will continue with the Zone Volume set to 10.0 m3. 
   **   ~~~   ** ...use Output:Diagnostics,DisplayExtraWarnings; to show more details on individual zones.
   ** Warning ** CheckUsedConstructions: There are 5 nominally unused constructions in input.
   **   ~~~   ** For explicit details on each unused construction, use Output:Diagnostics,DisplayExtraWarnings;
   ** Warning ** SetUpZoneSizingArrays: Requested Sizing for Zone="BLOCK BALCONY_F1 STOREY 0", Zone is not found in the Controlled Zones List
   ** Warning ** SetUpZoneSizingArrays: Requested Sizing for Zone="BLOCK BALCONY_F1 STOREY 0", Zone has no thermostat (ref: ZoneControl:Thermostat, et al)
   ** Warning ** SetUpZoneSizingArrays: Requested Sizing for Zone="BLOCK STORAGE_F1 STOREY 0", Zone is not found in the Controlled Zones List
   ** Warning ** SetUpZoneSizingArrays: Requested Sizing for Zone="BLOCK STORAGE_F1 STOREY 0", Zone has no thermostat (ref: ZoneControl:Thermostat, et al)
   ** Warning ** SetUpZoneSizingArrays: Requested Sizing for Zone="BLOCK BATHROOM_F1 STOREY 0", Zone is not found in the Controlled Zones List
   ** Warning ** SetUpZoneSizingArrays: Requested Sizing for Zone="BLOCK BATHROOM_F1 STOREY 0", Zone has no thermostat (ref: ZoneControl:Thermostat, et al)
   ** Warning ** SetUpDesignDay: Entered DesignDay Barometric Pressure=83411 differs by more than 10% from Standard Barometric Pressure=100487.
   **   ~~~   ** ...occurs in DesignDay=DENVER_STAPLETON ANN CLG .4% CONDNS DB=>MWB, Standard Pressure (based on elevation) will be used.
   ** Warning ** Calculated design cooling load for zone=BLOCK LIVING_1_F1 STOREY 0 is zero.
   **   ~~~   ** Check Sizing:Zone and ZoneControl:Thermostat inputs.
   ** Warning ** Calculated design cooling load for zone=BLOCK LIVING_2_F1 STOREY 0 is zero.
   **   ~~~   ** Check Sizing:Zone and ZoneControl:Thermostat inputs.
   ************* Testing Individual Branch Integrity
   ************* All Branches passed integrity testing
   ************* Testing Individual Supply Air Path Integrity
   ************* All Supply Air Paths passed integrity testing
   ************* Testing Individual Return Air Path Integrity
   ************* All Return Air Paths passed integrity testing
   ************* No node connection errors were found.
   ************* Beginning Simulation
   ************* Simulation Error Summary *************
   *************
   ************* ===== Final Error Summary =====
   ************* The following error categories occurred.  Consider correcting or noting.
   ************* Nominally Unused Constructions
   ************* ..The nominally unused constructions warning is provided to alert you to potential conditions that can cause
   ************* ..extra time during simulation. Each construction is calculated by the algorithm indicated in the HeatBalanceAlgorithm
   ************* ..object. You may remove the constructions indicated (when you use the DisplayExtraWarnings option).
   *************
   ************* EnergyPlus Warmup Error Summary. During Warmup: 0 Warning; 0 Severe Errors.
   ************* EnergyPlus Sizing Error Summary. During Sizing: 17 Warning; 0 Severe Errors.
   ************* EnergyPlus Completed Successfully-- 18 Warning; 0 Severe Errors; Elapsed Time=00hr 00min  4.20sec
